[Format]      =  4.0
[Frequency]   =  0
[Precision]   =  1e-008
[MinAngle]    =  30
[DoSmartMesh] =  0
[Depth]       =  10
[LengthUnits] =  millimeters
[ProblemType] =  planar
[Coordinates] =  cartesian
[ACSolver]    =  0
[PrevType]    =  0
[PrevSoln]    =  ""
[Comment]     =  "Add comments here."
[PointProps]   = 1
  <BeginPoint>
    <PointName> = "A=0"
    <I_re> = 0
    <I_im> = 0
    <A_re> = 0
    <A_im> = 0
  <EndPoint>
[BdryProps]   = 5
  <BeginBdry>
    <BdryName> = "A=0"
    <BdryType> = 0
    <A_0> = 0
    <A_1> = 0
    <A_2> = 0
    <Phi> = 0
    <c0> = 0
    <c0i> = 0
    <c1> = 0
    <c1i> = 0
    <Mu_ssd> = 0
    <Sigma_ssd> = 0
    <innerangle> = 0
    <outerangle> = 0
  <EndBdry>
  <BeginBdry>
    <BdryName> = "AGE"
    <BdryType> = 6
    <A_0> = 0
    <A_1> = 0
    <A_2> = 0
    <Phi> = 0
    <c0> = 0
    <c0i> = 0
    <c1> = 0
    <c1i> = 0
    <Mu_ssd> = 0
    <Sigma_ssd> = 0
    <innerangle> = 0
    <outerangle> = 0
  <EndBdry>
  <BeginBdry>
    <BdryName> = "A=0"
    <BdryType> = 0
    <A_0> = 0
    <A_1> = 0
    <A_2> = 0
    <Phi> = 0
    <c0> = 0
    <c0i> = 0
    <c1> = 0
    <c1i> = 0
    <Mu_ssd> = 0
    <Sigma_ssd> = 0
    <innerangle> = 0
    <outerangle> = 0
  <EndBdry>
  <BeginBdry>
    <BdryName> = "Periodic BC1"
    <BdryType> = 4
    <A_0> = 0
    <A_1> = 0
    <A_2> = 0
    <Phi> = 0
    <c0> = 0
    <c0i> = 0
    <c1> = 0
    <c1i> = 0
    <Mu_ssd> = 0
    <Sigma_ssd> = 0
    <innerangle> = 0
    <outerangle> = 0
  <EndBdry>
  <BeginBdry>
    <BdryName> = "Periodic BC2"
    <BdryType> = 4
    <A_0> = 0
    <A_1> = 0
    <A_2> = 0
    <Phi> = 0
    <c0> = 0
    <c0i> = 0
    <c1> = 0
    <c1i> = 0
    <Mu_ssd> = 0
    <Sigma_ssd> = 0
    <innerangle> = 0
    <outerangle> = 0
  <EndBdry>
[BlockProps]  = 6
  <BeginBlock>
    <BlockName> = "Axis"
    <Mu_x> = 1
    <Mu_y> = 1
    <H_c> = 0
    <H_cAngle> = 0
    <J_re> = 0
    <J_im> = 0
    <Sigma> = 0
    <d_lam> = 0
    <Phi_h> = 0
    <Phi_hx> = 0
    <Phi_hy> = 0
    <LamType> = 0
    <LamFill> = 1
    <NStrands> = 0
    <WireD> = 0
    <BHPoints> = 0
  <EndBlock>
  <BeginBlock>
    <BlockName> = "PM"
    <Mu_x> = 1.05
    <Mu_y> = 1.05
    <H_c> = 909456.80000000005
    <H_cAngle> = 0
    <J_re> = 0
    <J_im> = 0
    <Sigma> = 0
    <d_lam> = 0
    <Phi_h> = 0
    <Phi_hx> = 0
    <Phi_hy> = 0
    <LamType> = 0
    <LamFill> = 1
    <NStrands> = 0
    <WireD> = 0
    <BHPoints> = 0
  <EndBlock>
  <BeginBlock>
    <BlockName> = "Rotor_Iron"
    <Mu_x> = 2100
    <Mu_y> = 2100
    <H_c> = 0
    <H_cAngle> = 0
    <J_re> = 0
    <J_im> = 0
    <Sigma> = 0
    <d_lam> = 0
    <Phi_h> = 0
    <Phi_hx> = 0
    <Phi_hy> = 0
    <LamType> = 0
    <LamFill> = 1
    <NStrands> = 0
    <WireD> = 0
    <BHPoints> = 200
      0	0
      1.77017734	19.754588030000001
      2.5034087999999999	28.28302072
      3.06603709	35.075691310000003
      3.5403546800000001	41.020910270000002
      3.95823686	46.460924740000003
      4.3360312299999997	51.571174290000002
      4.6834490099999995	56.456407859999999
      5.0068175999999998	61.185675099999997
      5.3105320099999993	65.807875890000005
      5.5977922499999995	70.359632899999994
      5.8710140400000004	74.869668009999998
      6.13207418	79.361414969999998
      6.3824651600000006	83.854670799999994
      6.62339711	88.366690509999998
      6.8558673500000005	92.912943839999997
      7.0807093499999993	97.507658620000001
      7.2986281399999999	102.1642253
      7.5102263999999996	106.8955093
      7.7160241300000001	111.71410059999999
      7.9164737199999999	116.6325221
      8.111971650000001	121.66340839999999
      8.3028676800000003	126.8196671
      8.4894722799999993	132.11462890000001
      8.6720624700000002	137.5621927
      8.8508866900000012	143.1769697
      9.0261687899999998	148.97443229999999
      9.198111260000001	154.97106890000001
      9.3668980299999998	161.1845514
      9.5326966999999989	167.63391580000001
      9.695660590000001	174.33976269999999
      9.8559303000000007	181.32447970000001
      10.0136352	188.61249230000001
      10.16889462	196.23054690000001
      10.3218189	204.20803419999999
      10.472510360000001	212.57735880000001
      10.621064029999999	221.37436500000001
      10.767568389999999	230.6388283
      10.912105969999999	240.41502560000001
      11.05475393	250.75239920000001
      11.195584499999999	261.70633170000002
      11.33466542	273.3390541
      11.472060319999999	285.72071340000002
      11.607829069999999	298.93062900000001
      11.742028090000002	313.05877820000001
      11.87471058	328.20755320000001
      12.005926840000001	344.4938449
      12.13572441	362.05151590000003
      12.264148349999999	381.03433799999999
      12.391241369999999	401.61947700000002
      12.517043999999999	424.01162260000001
      12.641594769999999	448.44786219999997
      12.764930320000001	475.20339790000003
      12.887085549999998	504.59818990000002
      13.0080937	537.00456310000004
      13.127986499999999	572.85572609999997
      13.246794230000001	612.6549923
      13.36454582	656.98522860000003
      13.48126897	706.51764800000001
      13.59699013	762.01847290000001
      13.711734700000001	824.35122909999995
      13.825526979999999	894.47156259999997
      13.938390300000002	973.41075920000003
      14.05034704	1062.2440570000001
      14.16141871	1162.0410910000001
      14.271625960000001	1273.7990580000001
      14.38098868	1398.3645329999999
      14.48952598	1536.3560110000001
      14.59725628	1688.1034609999999
      14.70419732	1853.620298
      14.81036619	2032.615949
      14.91577938	2224.5462269999998
      15.020452799999999	2428.688866
      15.124401810000002	2644.2272469999998
      15.227641240000001	2870.3272219999999
      15.330185439999999	3106.1977360000001
      15.43204826	3351.1322150000001
      15.5332431	3604.5322759999999
      15.63378294	3865.9176120000002
      15.733680339999999	4134.926383
      15.83294744	4411.3098790000004
      15.931596040000001	4694.9243109999998
      16.029637560000001	4985.7216500000004
      16.12708306	5283.7407290000001
      16.223943290000001	5589.0992409999999
      16.320228670000002	5901.9869799999997
      16.415949299999998	6222.6604020000004
      16.511115029999999	6551.4385140000004
      16.605735370000001	6888.6999939999996
      16.699819609999999	7234.8814689999999
      16.79337675	7590.4768359999998
      16.88641556	7956.03755
      16.978944559999999	8332.1738100000002
      17.070972040000001	8719.5565779999997
      17.162506049999998	9118.9204040000004
      17.253554470000001	9531.0670389999996
      17.34412493	9956.8698170000007
      17.434224889999999	10397.278829999999
      17.5238616	10853.32691
      17.61304213	11326.136409999999
      17.701773380000002	11816.926939999999
      17.790062079999998	12327.0239
      17.87791477	12857.86808
      17.965337859999998	13411.02621
      18.05233758	13988.202590000001
      18.138920030000001	14591.2518
      18.225091159999998	15222.19253
      18.310856770000001	15883.2225
      18.396222529999999	16576.734499999999
      18.481193990000001	17305.33337
      18.565776549999999	18071.85384
      18.649975519999998	18879.378939999999
      18.733796049999999	19731.25864
      18.817243219999998	20631.12818
      18.900321959999999	21582.925429999999
      18.983037110000001	22590.906279999999
      19.065393409999999	23659.65683
      19.14739548	24794.100979999999
      19.229047859999998	25999.501370000002
      19.310354970000002	27281.4516
      19.391321180000002	28645.857049999999
      19.471950719999999	30098.901679999999
      19.552247770000001	31646.997940000001
      19.63221639	33296.717060000003
      19.711860600000001	35054.697840000001
      19.791184300000001	36927.532850000003
      19.870191340000002	38921.632460000001
      19.948885480000001	41043.069539999997
      20.027270399999999	43297.40969
      20.10534972	45689.534919999998
      20.183126989999998	48223.470699999998
      20.260605690000002	50902.228280000003
      20.337789229999998	53727.674429999999
      20.414680959999998	56700.439839999999
      20.491284159999999	59819.874580000003
      20.567602049999998	63084.055339999999
      20.643637810000001	66489.843949999995
      20.719394530000002	70032.992469999997
      20.794875269999999	73708.285669999997
      20.870083020000003	77509.709520000004
      20.945020730000003	81430.632949999999
      21.019691269999999	85463.991139999998
      21.094097490000003	89602.459929999997
      21.168242169999999	93838.613819999999
      21.242128059999999	98165.062550000002
      21.315757839999996	102574.5638
      21.389134159999998	107060.1122
      21.462259619999998	111615.0047
      21.535136769999998	116232.8872
      21.60776813	120907.7818
      21.680156159999999	125634.10159999999
      21.752303309999999	130406.6523
      21.824211939999998	135220.6268
      21.895884419999998	140071.5919
      21.967323059999998	144955.47200000001
      22.038530129999998	149868.52849999999
      22.109507869999998	154807.33929999999
      22.180258469999998	159768.7757
      22.250784119999999	164749.98139999999
      22.32108693	169748.35029999999
      22.391169009999999	174761.5062
      22.461032420000002	179787.28349999999
      22.530679199999998	184823.70860000001
      22.600111349999999	189868.9834
      22.669330840000001	194921.4693
      22.738339619999998	199979.67310000001
      22.807139589999998	205042.23370000001
      22.875732649999996	210107.91010000001
      22.944120639999998	215175.57060000001
      23.012305400000002	220244.18290000001
      23.080288719999999	225312.80470000001
      23.148072389999999	230380.57629999999
      23.215658149999999	235446.71230000001
      23.283047719999999	240510.49559999999
      23.350242799999997	245571.27119999999
      23.41724507	250628.44039999999
      23.484056170000002	255681.45629999999
      23.550677740000001	260729.81880000001
      23.617111380000001	265773.0711
      23.683358669999997	270810.7954
      23.749421160000001	275842.60999999999
      23.815300409999999	280868.16609999997
      23.880997910000001	285887.14520000003
      23.946515169999998	290899.2562
      24.011853670000001	295904.23349999997
      24.077014860000002	300901.83490000002
      24.142000170000003	305891.83929999999
      24.206811030000001	310874.04560000001
      24.27144882	315848.27069999999
      24.335914939999999	320814.34820000001
      24.400210730000001	325772.12699999998
      24.464337540000002	330721.47029999999
      24.528296709999999	335662.25429999997
      24.592089520000002	340594.36719999998
      24.655717290000002	345517.7084
      24.71918127	350432.18780000001
      24.782482739999999	355337.72460000002
      24.84562292	360234.24670000002
      24.90860305	365121.69059999997
      24.971424350000003	370000
  <EndBlock>
  <BeginBlock>
    <BlockName> = "Air"
    <Mu_x> = 1
    <Mu_y> = 1
    <H_c> = 0
    <H_cAngle> = 0
    <J_re> = 0
    <J_im> = 0
    <Sigma> = 0
    <d_lam> = 0
    <Phi_h> = 0
    <Phi_hx> = 0
    <Phi_hy> = 0
    <LamType> = 0
    <LamFill> = 1
    <NStrands> = 0
    <WireD> = 0
    <BHPoints> = 0
  <EndBlock>
  <BeginBlock>
    <BlockName> = "Stator_Iron"
    <Mu_x> = 2100
    <Mu_y> = 2100
    <H_c> = 0
    <H_cAngle> = 0
    <J_re> = 0
    <J_im> = 0
    <Sigma> = 0
    <d_lam> = 0
    <Phi_h> = 0
    <Phi_hx> = 0
    <Phi_hy> = 0
    <LamType> = 0
    <LamFill> = 1
    <NStrands> = 0
    <WireD> = 0
    <BHPoints> = 200
      0	0
      1.77017734	19.754588030000001
      2.5034087999999999	28.28302072
      3.06603709	35.075691310000003
      3.5403546800000001	41.020910270000002
      3.95823686	46.460924740000003
      4.3360312299999997	51.571174290000002
      4.6834490099999995	56.456407859999999
      5.0068175999999998	61.185675099999997
      5.3105320099999993	65.807875890000005
      5.5977922499999995	70.359632899999994
      5.8710140400000004	74.869668009999998
      6.13207418	79.361414969999998
      6.3824651600000006	83.854670799999994
      6.62339711	88.366690509999998
      6.8558673500000005	92.912943839999997
      7.0807093499999993	97.507658620000001
      7.2986281399999999	102.1642253
      7.5102263999999996	106.8955093
      7.7160241300000001	111.71410059999999
      7.9164737199999999	116.6325221
      8.111971650000001	121.66340839999999
      8.3028676800000003	126.8196671
      8.4894722799999993	132.11462890000001
      8.6720624700000002	137.5621927
      8.8508866900000012	143.1769697
      9.0261687899999998	148.97443229999999
      9.198111260000001	154.97106890000001
      9.3668980299999998	161.1845514
      9.5326966999999989	167.63391580000001
      9.695660590000001	174.33976269999999
      9.8559303000000007	181.32447970000001
      10.0136352	188.61249230000001
      10.16889462	196.23054690000001
      10.3218189	204.20803419999999
      10.472510360000001	212.57735880000001
      10.621064029999999	221.37436500000001
      10.767568389999999	230.6388283
      10.912105969999999	240.41502560000001
      11.05475393	250.75239920000001
      11.195584499999999	261.70633170000002
      11.33466542	273.3390541
      11.472060319999999	285.72071340000002
      11.607829069999999	298.93062900000001
      11.742028090000002	313.05877820000001
      11.87471058	328.20755320000001
      12.005926840000001	344.4938449
      12.13572441	362.05151590000003
      12.264148349999999	381.03433799999999
      12.391241369999999	401.61947700000002
      12.517043999999999	424.01162260000001
      12.641594769999999	448.44786219999997
      12.764930320000001	475.20339790000003
      12.887085549999998	504.59818990000002
      13.0080937	537.00456310000004
      13.127986499999999	572.85572609999997
      13.246794230000001	612.6549923
      13.36454582	656.98522860000003
      13.48126897	706.51764800000001
      13.59699013	762.01847290000001
      13.711734700000001	824.35122909999995
      13.825526979999999	894.47156259999997
      13.938390300000002	973.41075920000003
      14.05034704	1062.2440570000001
      14.16141871	1162.0410910000001
      14.271625960000001	1273.7990580000001
      14.38098868	1398.3645329999999
      14.48952598	1536.3560110000001
      14.59725628	1688.1034609999999
      14.70419732	1853.620298
      14.81036619	2032.615949
      14.91577938	2224.5462269999998
      15.020452799999999	2428.688866
      15.124401810000002	2644.2272469999998
      15.227641240000001	2870.3272219999999
      15.330185439999999	3106.1977360000001
      15.43204826	3351.1322150000001
      15.5332431	3604.5322759999999
      15.63378294	3865.9176120000002
      15.733680339999999	4134.926383
      15.83294744	4411.3098790000004
      15.931596040000001	4694.9243109999998
      16.029637560000001	4985.7216500000004
      16.12708306	5283.7407290000001
      16.223943290000001	5589.0992409999999
      16.320228670000002	5901.9869799999997
      16.415949299999998	6222.6604020000004
      16.511115029999999	6551.4385140000004
      16.605735370000001	6888.6999939999996
      16.699819609999999	7234.8814689999999
      16.79337675	7590.4768359999998
      16.88641556	7956.03755
      16.978944559999999	8332.1738100000002
      17.070972040000001	8719.5565779999997
      17.162506049999998	9118.9204040000004
      17.253554470000001	9531.0670389999996
      17.34412493	9956.8698170000007
      17.434224889999999	10397.278829999999
      17.5238616	10853.32691
      17.61304213	11326.136409999999
      17.701773380000002	11816.926939999999
      17.790062079999998	12327.0239
      17.87791477	12857.86808
      17.965337859999998	13411.02621
      18.05233758	13988.202590000001
      18.138920030000001	14591.2518
      18.225091159999998	15222.19253
      18.310856770000001	15883.2225
      18.396222529999999	16576.734499999999
      18.481193990000001	17305.33337
      18.565776549999999	18071.85384
      18.649975519999998	18879.378939999999
      18.733796049999999	19731.25864
      18.817243219999998	20631.12818
      18.900321959999999	21582.925429999999
      18.983037110000001	22590.906279999999
      19.065393409999999	23659.65683
      19.14739548	24794.100979999999
      19.229047859999998	25999.501370000002
      19.310354970000002	27281.4516
      19.391321180000002	28645.857049999999
      19.471950719999999	30098.901679999999
      19.552247770000001	31646.997940000001
      19.63221639	33296.717060000003
      19.711860600000001	35054.697840000001
      19.791184300000001	36927.532850000003
      19.870191340000002	38921.632460000001
      19.948885480000001	41043.069539999997
      20.027270399999999	43297.40969
      20.10534972	45689.534919999998
      20.183126989999998	48223.470699999998
      20.260605690000002	50902.228280000003
      20.337789229999998	53727.674429999999
      20.414680959999998	56700.439839999999
      20.491284159999999	59819.874580000003
      20.567602049999998	63084.055339999999
      20.643637810000001	66489.843949999995
      20.719394530000002	70032.992469999997
      20.794875269999999	73708.285669999997
      20.870083020000003	77509.709520000004
      20.945020730000003	81430.632949999999
      21.019691269999999	85463.991139999998
      21.094097490000003	89602.459929999997
      21.168242169999999	93838.613819999999
      21.242128059999999	98165.062550000002
      21.315757839999996	102574.5638
      21.389134159999998	107060.1122
      21.462259619999998	111615.0047
      21.535136769999998	116232.8872
      21.60776813	120907.7818
      21.680156159999999	125634.10159999999
      21.752303309999999	130406.6523
      21.824211939999998	135220.6268
      21.895884419999998	140071.5919
      21.967323059999998	144955.47200000001
      22.038530129999998	149868.52849999999
      22.109507869999998	154807.33929999999
      22.180258469999998	159768.7757
      22.250784119999999	164749.98139999999
      22.32108693	169748.35029999999
      22.391169009999999	174761.5062
      22.461032420000002	179787.28349999999
      22.530679199999998	184823.70860000001
      22.600111349999999	189868.9834
      22.669330840000001	194921.4693
      22.738339619999998	199979.67310000001
      22.807139589999998	205042.23370000001
      22.875732649999996	210107.91010000001
      22.944120639999998	215175.57060000001
      23.012305400000002	220244.18290000001
      23.080288719999999	225312.80470000001
      23.148072389999999	230380.57629999999
      23.215658149999999	235446.71230000001
      23.283047719999999	240510.49559999999
      23.350242799999997	245571.27119999999
      23.41724507	250628.44039999999
      23.484056170000002	255681.45629999999
      23.550677740000001	260729.81880000001
      23.617111380000001	265773.0711
      23.683358669999997	270810.7954
      23.749421160000001	275842.60999999999
      23.815300409999999	280868.16609999997
      23.880997910000001	285887.14520000003
      23.946515169999998	290899.2562
      24.011853670000001	295904.23349999997
      24.077014860000002	300901.83490000002
      24.142000170000003	305891.83929999999
      24.206811030000001	310874.04560000001
      24.27144882	315848.27069999999
      24.335914939999999	320814.34820000001
      24.400210730000001	325772.12699999998
      24.464337540000002	330721.47029999999
      24.528296709999999	335662.25429999997
      24.592089520000002	340594.36719999998
      24.655717290000002	345517.7084
      24.71918127	350432.18780000001
      24.782482739999999	355337.72460000002
      24.84562292	360234.24670000002
      24.90860305	365121.69059999997
      24.971424350000003	370000
  <EndBlock>
  <BeginBlock>
    <BlockName> = "Coil"
    <Mu_x> = 1
    <Mu_y> = 1
    <H_c> = 0
    <H_cAngle> = 0
    <J_re> = 0
    <J_im> = 0
    <Sigma> = 37.700000000000003
    <d_lam> = 0
    <Phi_h> = 0
    <Phi_hx> = 0
    <Phi_hy> = 0
    <LamType> = 0
    <LamFill> = 1
    <NStrands> = 0
    <WireD> = 0
    <BHPoints> = 0
  <EndBlock>
[CircuitProps]  = 3
  <BeginCircuit>
    <CircuitName> = "A"
    <TotalAmps_re> = 0
    <TotalAmps_im> = 0
    <CircuitType> = 1
  <EndCircuit>
  <BeginCircuit>
    <CircuitName> = "B"
    <TotalAmps_re> = 0
    <TotalAmps_im> = 0
    <CircuitType> = 1
  <EndCircuit>
  <BeginCircuit>
    <CircuitName> = "C"
    <TotalAmps_re> = 0
    <TotalAmps_im> = 0
    <CircuitType> = 1
  <EndCircuit>
[NumPoints] = 328
20	0	0	0
-20	2.4492935982947065e-015	0	0
53	0	0	0
-53	6.4906280354809723e-015	0	0
52.3474820515423	-8.2910266471322362	0	0
55.310547073327712	-8.760330042252928	0	0
52.3474820515423	8.2910266471322362	0	0
55.310547073327712	8.760330042252928	0	0
47.223345781983497	24.061496486195978	0	0
49.8963653545486	25.423467985414618	0	0
37.476659402887023	37.476659402887023	0	0
39.597979746446661	39.597979746446661	0	0
24.061496486195981	47.223345781983497	0	0
25.423467985414625	49.8963653545486	0	0
8.291026647132238	52.3474820515423	0	0
8.7603300422529298	55.310547073327712	0	0
-8.2910266471322327	52.3474820515423	0	0
-8.7603300422529244	55.310547073327712	0	0
-24.061496486195974	47.223345781983504	0	0
-25.423467985414618	49.896365354548607	0	0
-37.476659402887016	37.476659402887023	0	0
-39.597979746446654	39.597979746446661	0	0
-47.223345781983497	24.061496486195988	0	0
-49.896365354548593	25.423467985414632	0	0
-52.3474820515423	8.2910266471322416	0	0
-55.310547073327712	8.7603300422529333	0	0
-52.3474820515423	-8.2910266471322291	0	0
-55.310547073327712	-8.7603300422529209	0	0
-47.223345781983497	-24.061496486195995	0	0
-49.896365354548593	-25.423467985414639	0	0
-37.476659402887023	-37.476659402887016	0	0
-39.597979746446661	-39.597979746446654	0	0
-24.061496486195988	-47.223345781983497	0	0
-25.423467985414632	-49.896365354548593	0	0
-8.2910266471322451	-52.3474820515423	0	0
-8.7603300422529369	-55.310547073327712	0	0
8.2910266471322274	-52.3474820515423	0	0
8.7603300422529173	-55.310547073327712	0	0
24.061496486195971	-47.223345781983504	0	0
25.423467985414611	-49.896365354548607	0	0
37.476659402887009	-37.47665940288703	0	0
39.597979746446647	-39.597979746446669	0	0
47.223345781983497	-24.061496486195992	0	0
49.896365354548593	-25.423467985414632	0	0
56.75	0	0	0
-56.75	6.9498705851612291e-015	0	0
56.25	0	0	0
-56.25	6.8886382452038615e-015	0	0
57	0	0	0
56.814109439016832	4.5996704937873858	0	0
58.309217582148854	4.7207144541502117	0	0
59.305956344236868	4.8014104277254281	0	0
60.356810381418811	4.7843323156027333	0	0
79.856810381418811	4.7843323156027333	0	0
59.824264986620278	9.0170571036585532	0	0
79.106466098010287	11.923381294093955	0	0
56.814109439016832	-4.5996704937873858	0	0
58.309217582148854	-4.7207144541502117	0	0
59.305956344236868	-4.8014104277254281	0	0
60.356810381418811	-4.7843323156027333	0	0
79.856810381418811	-4.7843323156027333	0	0
59.824264986620278	-9.0170571036585532	0	0
79.106466098010287	-11.923381294093955	0	0
52.934241286253183	21.141572776137743	0	0
54.327247635891425	21.697929954457152	0	0
55.255918535650252	22.068834740003432	0	0
56.26511993834923	22.362260025494784	0	0
74.898789651178973	28.109985926507417	0	0
55.645794643511167	12.35093269725747	0	0
57.110157660445665	12.67595724192214	0	0
58.086399671735336	12.892640271698589	0	0
59.085533350599647	13.218704316227168	0	0
77.71920306342939	18.9664302172398	0	0
54.467649929810015	16.801044941421541	0	0
54.508616508096353	26.249966216612265	0	0
72.077509432193523	34.710699129404652	0	0
44.350933497114227	35.804953539064279	0	0
45.518063325985658	36.747189158513336	0	0
46.296149878566602	37.375346238146037	0	0
47.174026673345402	37.953202796959879	0	0
63.2856827725073	48.937943929200507	0	0
49.533106796381901	28.204101316975603	0	0
50.836609606813006	28.946314509527596	0	0
51.705611480433738	29.44112330456225	0	0
52.56424738898739	30.047201060231863	0	0
68.675903488149288	41.031942192472492	0	0
47.095610136011707	32.109243309626457	0	0
44.34963824570449	41.150450635140622	0	0
58.644149746386105	54.413819021673554	0	0
31.826850635890764	47.28690705259438	0	0
32.66439933683526	48.531299343452119	0	0
33.222765137464918	49.36089420402395	0	0
33.891314118608584	50.171836945027927	0	0
46.049365254853889	65.417550853154509	0	0
39.019185037935259	41.551211763020454	0	0
40.046005696828288	42.644664704152575	0	0
40.730552802756975	43.373633331573984	0	0
41.372397372463361	44.205872130064954	0	0
53.530448508708666	59.451586038191536	0	0
35.538918705947815	44.5643945006777	0	0
30.250000000000004	52.394536928958537	0	0
40.000000000000007	69.282032302755098	0	0
16.474812425834877	54.567211359327828	0	0
16.908360121251583	56.003190605625932	0	0
17.197391918196058	56.960510103157993	0	0
17.597209574851085	57.932483205050303	0	0
24.721359549995789	76.084521303612291	0	0
25.038237455994881	51.206314699431502	0	0
25.697138441678959	52.553849296784961	0	0
26.136405765468343	53.452205695020602	0	0
26.504428289620535	54.436657466867203	0	0
33.628578264765238	72.588695565429191	0	0
20.824438388884513	53.059803672719639	0	0
13.462516504357021	58.983138687000327	0	0
17.801674716505151	77.994232974545895	0	0
-0.34108516677992906	56.998979472522159	0	0
-0.35006109222150616	58.498952616535902	0	0
-0.35604504251589031	59.498934712545058	0	0
-0.26048426371417488	60.545574099788858	0	0
1.1967525612211007	79.991048144821875	0	0
8.8325325975940991	56.311511859587263	0	0
9.0649676659518406	57.793393750629036	0	0
9.2199243781903313	58.781315011323549	0	0
9.2814244404771742	59.830506896401765	0	0
10.73866126541245	79.275980941434781	0	0
4.25961533442619	56.84061643932727	0	0
-4.5211706619786582	60.330829729461406	0	0
-5.9784074869139285	79.776303774494409	0	0
-17.126675845498752	54.366138123681452	0	0
-17.577377841432931	55.796825969041485	0	0
-17.877845838722383	56.750617865948172	0	0
-18.095032932332085	57.778925035885564	0	0
-22.434191144480216	76.790019323431125	0	0
-8.1579815430338058	56.413184072019192	0	0
-8.3726652678504863	57.897741547598635	0	0
-8.5157877510616053	58.887446531318275	0	0
-8.7662747010628799	59.908153226336154	0	0
-13.105432913211011	78.919247513881714	0	0
-12.683693235509917	55.57089099436395	0	0
-22.103131974166892	56.317861792974355	0	0
-29.227281949311596	74.469899891536343	0	0
-32.390486216165989	46.902626820684148	0	0
-33.242867432380883	48.136906473860051	0	0
-33.811121576524151	48.959759575977316	0	0
-34.321758516168188	49.878364923907668	0	0
-44.071758516168188	66.765860297704208	0	0
-24.423623222850814	51.502297314471534	0	0
-25.066350149767938	52.857620928010263	0	0
-25.494834767712693	53.761170003702745	0	0
-26.035051865250594	54.662697239510393	0	0
-35.785051865250594	71.550192613306947	0	0
-28.499999999999986	49.363448015713004	0	0
-37.721133012453365	47.300804689315811	0	0
-49.87918414869867	62.546518597442386	0	0
-44.776259743219377	35.271611295881442	0	0
-45.954582368040938	36.199811593141483	0	0
-46.740130784588644	36.818611791314844	0	0
-47.498845237286346	37.54589320084137	0	0
-61.793356737967962	50.809261587374294	0	0
-38.519118798012407	42.015205426423975	0	0
-39.532779819012738	43.120868727119337	0	0
-40.208553833012957	43.857977594249583	0	0
-40.990500418267558	44.560220719658396	0	0
-55.285011918949174	57.823589106191321	0	0
-41.783956694300102	38.769846052942405	0	0
-49.987445846117694	34.080863512849135	0	0
-66.0991019452796	45.065604645089763	0	0
-53.183466094708315	20.506558320522998	0	0
-54.583030991937477	21.046204592115711	0	0
-55.516074256756923	21.405968773177516	0	0
-56.455451113822555	21.877304099441897	0	0
-74.024344037919732	30.338037012234281	0	0
-49.19202162960196	28.794878155546563	0	0
-50.48654851459149	29.552638107008317	0	0
-51.349566437917829	30.057811407982815	0	0
-52.3037631252732	30.498373039557006	0	0
-69.872656049370377	38.95910595234939	0	0
-51.355225470437887	24.73137312970082	0	0
-57.812154750061509	17.832688051859712	0	0
-76.445824462891267	23.580413952872352	0	0
-56.865088091885646	3.9194076468371417	0	0
-58.361537778514212	4.0225499533328568	0	0
-59.359170902933258	4.0913114909966657	0	0
-60.395742408229118	4.2648205218392956	0	0
-79.67794351961912	7.1711447122747014	0	0
-55.493997463770135	13.015999596307394	0	0
-56.954365818079872	13.358525901473378	0	0
-57.927944720953036	13.586876771584031	0	0
-58.969606947314439	13.726611074985362	0	0
-78.251808058704441	16.63293526542077	0	0
-56.363357094832324	8.4954091720419598	0	0
-60.5	1.7763568394002505e-014	0	0
-80.000000000000014	2.1316282072803006e-014	0	0
-55.493997463770135	-13.015999596307354	0	0
-56.954365818079879	-13.358525901473337	0	0
-57.927944720953043	-13.586876771583992	0	0
-58.969606947314453	-13.726611074985321	0	0
-78.251808058704455	-16.632935265420713	0	0
-56.865088091885646	-3.9194076468371026	0	0
-58.361537778514219	-4.0225499533328151	0	0
-59.359170902933265	-4.0913114909966239	0	0
-60.395742408229118	-4.2648205218392521	0	0
-79.677943519619134	-7.1711447122746454	0	0
-56.363357094832331	-8.4954091720419189	0	0
-57.812154750061524	-17.83268805185968	0	0
-76.445824462891267	-23.580413952872306	0	0
-49.19202162960196	-28.794878155546552	0	0
-50.48654851459149	-29.552638107008303	0	0
-51.349566437917844	-30.057811407982804	0	0
-52.303763125273207	-30.498373039556991	0	0
-69.872656049370377	-38.959105952349368	0	0
-53.183466094708315	-20.506558320522988	0	0